-- Copyright (C) 2023 NORCE
----------------------------------------------------------------------------
RUNSPEC
----------------------------------------------------------------------------
DIMENS
12 1 12 /

EQLDIMS
/

TABDIMS
7 1* 200 /

WATER
GAS
CO2STORE
DISGASW
VAPWAT
--DIFFUSE
--THERMAL

METRIC

START
1 'JAN' 2025 /

WELLDIMS
2 12 2 2 /

UNIFIN
UNIFOUT
----------------------------------------------------------------------------
GRID
----------------------------------------------------------------------------
INIT
INCLUDE
'DX.INC' /
DY
144*1.0 /
DZ
144*100.0 /
TOPS
12*0.0 /

INCLUDE
'PERMX.INC' /

COPY
PERMX PERMY /
PERMX PERMZ /
/

OPERATE
PERMZ 1* 1* 1* 1* 1* 1* 'MULTX' PERMZ 0.1 /
/

INCLUDE
'PORO.INC' /

INCLUDE
'THCONR.INC' /

----------------------------------------------------------------------------
PROPS
----------------------------------------------------------------------------
INCLUDE
'TABLES.INC' /

DIFFCWAT
8.64e-05 8.64e-05 /

DIFFCGAS
0.001728 0.001728 /

SPECROCK
40.0 0.85
70.0 0.85 /
40.0 0.85
70.0 0.85 /
40.0 0.85
70.0 0.85 /
40.0 0.85
70.0 0.85 /
40.0 0.85
70.0 0.85 /
40.0 0.85
70.0 0.85 /
40.0 0.85
70.0 0.85 /
----------------------------------------------------------------------------
REGIONS
----------------------------------------------------------------------------
INCLUDE
'SATNUM.INC' /
INCLUDE
'FIPNUM.INC' /
----------------------------------------------------------------------------
SOLUTION
---------------------------------------------------------------------------
EQUIL
0 196.2 0 0 0 0 1 1 0 /

RPTRST
'BASIC=2' DEN KRG/


RTEMPVD
0   40.0
1200.0 70.0 /
----------------------------------------------------------------------------
SUMMARY
----------------------------------------------------------------------------
PERFORMA
FGIP
FGIR
FGIT
WBHP
/
WGIR
/
WGIT
/
----------------------------------------------------------------------------
SCHEDULE
----------------------------------------------------------------------------
RPTRST
'BASIC=2' DEN KRG/

-- WELSPECS
-- 'INJ0' 'G1' 5 1 1* 'GAS' 0.15/
-- 'INJ1' 'G1' 8 1 1* 'GAS' 0.15/
-- /
-- COMPDAT
-- 'INJ0' 5 1 9 9 'OPEN' 1* 1* 0.3 /
-- 'INJ1' 8 1 5 5 'OPEN' 1* 1* 0.3 /
-- /

TUNING
1e-2 365.0 1e-10 2* 1e-12/
/
/
SOURCE
 5 1 9 GAS 1.618471E+03 /
/
-- WCONINJE
-- 'INJ0' 'GAS' OPEN
-- 'RATE'  1.618471E+03  1* 400/
-- 'INJ1' 'GAS' SHUT
-- 'RATE'  0.000000E+00  1* 400/
-- /
-- WTEMP
-- 'INJ0' 10.0 /
-- 'INJ1' 10.0 /
-- /

TSTEP
5*1825.0
/
TUNING
1e-2 365.0 1e-10 2* 1e-12/
/
/
SOURCE
 5 1 9 GAS 1.618471E+03 /
 8 1 5 GAS 1.618471E+03 /
/
-- WCONINJE
-- 'INJ0' 'GAS' OPEN
-- 'RATE'  1.618471E+03  1* 400/
-- 'INJ1' 'GAS' OPEN
-- 'RATE'  1.618471E+03  1* 400/
-- /
-- WTEMP
-- 'INJ0' 10.0 /
-- 'INJ1' 10.0 /
-- /
TSTEP
5*1825.0
/
TUNING
1e-2 9125.0 1e-10 2* 1e-12/
/
/
SOURCE
 5 1 9 GAS 0 /
 8 1 5 GAS 0 /
/
-- WCONINJE
-- 'INJ0' WATER SHUT
-- 'RATE'  0.000000E+00  1* 400/
-- 'INJ1' WATER SHUT
-- 'RATE'  0.000000E+00  1* 400/
-- /
-- WTEMP
-- 'INJ0' 10.0 /
-- 'INJ1' 10.0 /
-- /
TSTEP
38*9125.0
/
